tests/fuzzer/corpus_json/24_columnar_21_random_015.json
{
  "version": "1.0",
  "type": "input",
  "is_batch": false,
  "attributes": {
    "node": [
      "id",
      "u_rated"
    ],
    "source": [
      "id",
      "node",
      "status",
      "u_ref",
      "u_ref_angle",
      "sk",
      "rx_ratio",
      "z01_ratio"
    ],
    "line": [
      "id",
      "from_node",
      "to_node",
      "from_status",
      "to_status",
      "r1",
      "x1",
      "c1",
      "tan1",
      "r0",
      "x0",
      "c0",
      "tan0",
      "i_n"
    ],
    "sym_load": [
      "id",
      "node",
      "status",
      "type",
      "p_specified",
      "q_specified"
    ],
    "shunt": [
      "id",
      "node",
      "status",
      "g1",
      "b1",
      "g0",
      "b0"
    ]
  },
  "data": {
    "node": [
      [
        0,
        230.0
      ],
      [
        1,
        230.0
      ],
      [
        2,
        230.0
      ],
      [
        3,
        230.0
      ],
      [
        4,
        230.0
      ]
    ],
    "source": [
      [
        5,
        0,
        1,
        0.9072352888554525,
        0.0,
        521364767.19243836,
        0.45650692279018257,
        1.0
      ],
      [
        6,
        4,
        1,
        1.0,
        0.0,
        55042722.44724114,
        0.1,
        1.0
      ]
    ],
    "line": [
      [
        7,
        0,
        1,
        1,
        1,
        4.024371828189144,
        0.7362417823576323,
        6.947772726402895e-07,
        0.0,
        0.3,
        0.3,
        1e-09,
        0.0,
        373.61960729448515
      ],
      [
        8,
        1,
        2,
        1,
        1,
        0.5856491751252768,
        2.33164890513548,
        3.5573930502371253e-07,
        0.0,
        0.3,
        0.3,
        1e-09,
        0.0,
        398.3528991839372
      ],
      [
        9,
        2,
        3,
        1,
        1,
        1.7216996933746975,
        4.675177777477991,
        2.0636682863930312e-07,
        0.0,
        0.3,
        0.3,
        1e-09,
        0.0,
        361.6162814918148
      ],
      [
        10,
        3,
        4,
        1,
        1,
        1.5668539786112012,
        1.5281924204840613,
        7.266233228994156e-07,
        0.0,
        0.3,
        0.3,
        1e-09,
        0.0,
        426.26260875964164
      ]
    ],
    "sym_load": [
      [
        11,
        1,
        1,
        1,
        -2075.7256761799945,
        -777.8628819150363
      ],
      [
        12,
        3,
        1,
        1,
        86043.47362224126,
        2911.425002006925
      ],
      [
        13,
        4,
        1,
        0,
        -1948.6949455574504,
        8900.496190609676
      ]
    ],
    "shunt": [
      [
        14,
        0,
        1,
        1.4031812201393757e-05,
        -6.556109843544906e-05,
        0.0001,
        0.0001
      ]
    ]
  }
}
